Circuit: * C:\Users\vivie\Desktop\Cours INSA\2021-2022\2ème semestre\Capteur\Elec LTspice Capteur\Elec LTspice Capteur\TP signal analogique 4A - Copie.asc

Direct Newton iteration for .op point succeeded.

Date: Fri Apr 15 19:14:01 2022
Total elapsed time: 0.073 seconds.

tnom = 27
temp = 27
method = trap
totiter = 22
traniter = 0
tranpoints = 0
accept = 0
rejected = 0
matrix size = 16
fillins = 5
solver = Normal
Matrix Compiler1:      41 opcodes
Matrix Compiler2: 1.30 KB object code size
